Version 4
SHEET 1 912 680
WIRE -112 96 -192 96
WIRE 160 96 160 64
WIRE 160 96 80 96
WIRE 352 96 352 64
WIRE 432 96 352 96
WIRE 768 96 624 96
WIRE 192 160 160 160
WIRE -112 192 -192 192
WIRE 160 192 160 160
WIRE 160 192 80 192
WIRE 432 192 352 192
WIRE 720 192 624 192
WIRE 768 192 720 192
WIRE 256 272 160 272
WIRE 352 272 256 272
WIRE -192 304 -192 272
WIRE 720 304 720 272
WIRE 256 336 256 272
FLAG -192 96 uC_Tx_D1
FLAG -192 304 uC_GND
FLAG 720 304 uC_GND
FLAG 256 336 CH340G_GND
FLAG 160 64 CH340G_3.3V
FLAG 352 64 CH340G_Tx
FLAG 768 192 uC_Rx_D0
FLAG 768 96 uC_3.3V
FLAG 192 160 CH340G_Rx
SYMBOL res 704 176 R0
WINDOW 0 -39 40 Left 2
WINDOW 3 -48 70 Left 2
SYMATTR InstName R1
SYMATTR Value 120
SYMBOL res -208 176 R0
SYMATTR InstName R2
SYMATTR Value 220
SYMBOL res 144 176 R0
WINDOW 0 -41 43 Left 2
WINDOW 3 -48 77 Left 2
SYMATTR InstName R3
SYMATTR Value 120
SYMBOL res 336 176 R0
SYMATTR InstName R4
SYMATTR Value 220
SYMBOL Optos\\PC817A -16 144 R0
SYMATTR InstName U1
SYMBOL Optos\\PC817A 528 144 R0
SYMATTR InstName U2
